Circuit: * C:\Users\gerem\Documents\LTspiceXVII\PFN simulations\Draft1.asc

WARNING: Specified period is not longer than the sum of Trise, Tfall, and Ton for v3.  Increasing period to 0.250002
WARNING: Specified period is not longer than the sum of Trise, Tfall, and Ton for v2.  Increasing period to 0.250002
Direct Newton iteration for .op point succeeded.

Date: Thu Feb 23 09:26:22 2023
Total elapsed time: 0.031 seconds.

tnom = 27
temp = 27
method = modified trap
totiter = 2957
traniter = 2953
tranpoints = 1474
accept = 1217
rejected = 257
matrix size = 9
fillins = 0
solver = Normal
Matrix Compiler1: 224 bytes object code size  0.1/0.0/[0.0]
Matrix Compiler2: off  [0.0]/0.1/0.1

