Circuit: * C:\Users\gerem\Documents\LTspiceXVII\PFN simulations\LC_with_switch.asc

Direct Newton iteration for .op point succeeded.

Date: Wed Feb 22 23:13:45 2023
Total elapsed time: 0.082 seconds.

tnom = 27
temp = 27
method = modified trap
totiter = 6609
traniter = 6606
tranpoints = 3303
accept = 2538
rejected = 765
matrix size = 16
fillins = 0
solver = Normal
Matrix Compiler1: 556 bytes object code size  0.3/0.2/[0.2]
Matrix Compiler2: off  [0.2]/0.3/0.2

