Circuit: * C:\Users\gerem\Documents\LTspiceXVII\PFN simulations\PFN_with_switch.asc

WARNING: Node N001 is floating.

WARNING: Less than two connections to node NC_01.  This node is used by S2.
WARNING: Less than two connections to node N001.  This node is used by S2.
Direct Newton iteration for .op point succeeded.

Date: Thu Feb 23 08:58:12 2023
Total elapsed time: 0.069 seconds.

tnom = 27
temp = 27
method = modified trap
totiter = 2523
traniter = 2520
tranpoints = 1260
accept = 1235
rejected = 25
matrix size = 17
fillins = 0
solver = Normal
Matrix Compiler1:      35 opcodes  0.1/[0.1]/0.1
Matrix Compiler2: off  [0.1]/0.2/0.1

